%chk=ciscishex.chk
# opt freq b3lyp/6-31g* geom=connectivity

Title Card Required

0 1
 C                 -2.53679774   -0.71592412    3.70629640
 H                 -1.99279046   -1.63730718    3.70935139
 H                 -2.81089475   -0.25552505    4.63247324
 C                 -2.87984196   -0.13006710    2.53341139
 H                 -3.42384923    0.79131596    2.53035640
 C                 -2.48534720   -0.79269753    1.20040922
 H                 -2.75619823   -0.33013333    0.27435626
 C                 -1.79632500   -1.95965852    1.19622668
 H                 -1.53389916   -2.42694898    0.27012069
 C                 -1.38964640   -2.61545251    2.52894825
 H                 -0.84562799   -3.53682815    2.52564592
 C                 -1.71842655   -2.02959554    3.70591140
 H                 -2.26235664   -1.10821247    3.71557043
 H                 -1.43310597   -2.48999463    4.62869243

 1 2 1.0 3 1.0 4 2.0
 2
 3
 4 5 1.0 6 1.0
 5
 6 7 1.0 8 2.0
 7
 8 9 1.0 10 1.0
 9
 10 11 1.0 12 2.0
 11
 12 13 1.0 14 1.0
 13
 14

