%chk=hex02.chk
# opt freq b3lyp/6-31g* geom=connectivity

Title Card Required

0 1
 C                 -3.96411332   -1.24700425    3.02210947
 H                 -4.22426366   -0.31773727    3.48436987
 H                 -4.23801021   -2.16991402    3.48914058
 C                 -3.28891069   -1.25906790    1.84715291
 H                 -3.02876034   -2.18833488    1.38489251
 C                 -2.89470394    0.06923213    1.17497730
 H                 -3.15485428    0.99849911    1.63723770
 C                 -2.21944155    0.06522006   -0.00000000
 H                 -1.94554466    0.98812982   -0.46703111
 C                 -1.84501956   -1.27222961   -0.66530937
 H                 -1.31186523   -1.27539735   -1.59301429
 C                 -2.18847293   -2.44518702   -0.07983712
 H                 -2.72165563   -2.44837652    0.84785142
 H                 -1.92556194   -3.37128623   -0.54686823

 1 2 1.0 3 1.0 4 2.0
 2
 3
 4 5 1.0 6 1.0
 5
 6 7 1.0 8 2.0
 7
 8 9 1.0 10 1.0
 9
 10 11 1.0 12 2.0
 11
 12 13 1.0 14 1.0
 13
 14

