%chk=hex04.chk
# opt freq b3lyp/6-31g* geom=connectivity

Title Card Required

0 1
 C                 -1.94183352    0.77652491    1.88684062
 H                 -2.35791800    0.32680555    2.76406704
 H                 -1.45865200    1.26736829    1.06799484
 C                 -2.80751473    0.27086798    0.97498857
 H                 -3.64918369    0.84800780    0.65342524
 C                 -2.57908532   -1.13923182    0.39962907
 H                 -3.26258510   -1.53847394   -0.32032495
 C                 -1.51535747   -1.87619825    0.80203505
 H                 -1.35664353   -2.85594292    0.40227227
 C                 -0.53162882   -1.30158810    1.83823055
 H                  0.30823895   -1.88346095    2.15595074
 C                 -0.72602448   -0.06149419    2.34905778
 H                 -1.55827015   -0.69031994    2.11063515
 H                  0.10622117    0.56733155    2.58748040

 1 2 1.0 3 1.0 4 2.0
 2
 3
 4 5 1.0 6 1.0
 5
 6 7 1.0 8 2.0
 7
 8 9 1.0 10 1.0
 9
 10 11 1.0 12 2.0
 11
 12 13 1.0 14 1.0
 13
 14

