%chk=oct02.chk
# opt freq b3lyp/6-31g geom=connectivity

Title Card Required

0 1
 C                 -3.29745483   -4.04923439   -0.00000000
 H                 -2.22815523   -4.01052557   -0.00000000
 H                 -3.79670848   -4.99562004   -0.00000000
 C                 -4.02161228   -2.90373755    0.00000000
 H                 -5.09091188   -2.94244637    0.00000000
 C                 -3.89583704   -1.36888231    0.00000000
 H                 -4.77689804   -0.76173200    0.00000000
 C                 -3.21359364   -0.19793783   -0.00000000
 H                 -3.74123611    0.73291845    0.00000000
 C                 -1.67362082   -0.20708759   -0.00000000
 H                 -1.53224076    0.85353095   -0.00000000
 C                 -0.59816999   -1.03169208   -0.00000000
 H                 -0.01862729   -0.13223099    0.00000000
 C                  0.10860153   -2.39992964   -0.00000000
 H                  1.11364678   -2.03280017   -0.00000000
 C                 -0.12253161   -3.73527398   -0.00000000
 H                 -1.12537785   -4.10836834   -0.00000000
 H                  0.70064852   -4.41884876    0.00000000

 1 2 1.0 3 1.0 4 2.0
 2
 3
 4 5 1.0 6 1.0
 5
 6 7 1.0 8 2.0
 7
 8 9 1.0 10 1.0
 9
 10 11 1.0 12 2.0
 11
 12 13 1.0 14 1.0
 13
 14 15 1.0 16 2.0
 15
 16 17 1.0 18 1.0
 17
 18

