%chk=oct01.chk
# opt freq b3lyp/6-31g* geom=connectivity

Title Card Required

0 1
 C                 -6.01027853    2.10207330    3.56431323
 H                 -5.46616731    2.09560740    4.48561729
 H                 -7.08012745    2.11478678    3.57702760
 C                 -5.34906036    2.09421576    2.38139488
 H                 -5.89317159    2.10068167    1.46009082
 C                 -3.80927780    2.07591787    2.36309569
 H                 -3.26516657    2.06945196    3.28439974
 C                 -3.14104360    2.06797695    1.18412705
 H                 -3.67967178    2.07437770    0.25960625
 C                 -1.60117951    2.04967808    1.17497730
 H                 -1.06255133    2.04327733    2.09949810
 C                 -0.92595287    2.04165408   -0.00000000
 H                 -1.45907898    2.04798944   -0.92770492
 C                  0.61393840    2.02335488   -0.00000000
 H                  1.14706451    2.01701952   -0.92770492
 C                  1.29613364    2.01524806    1.17094448
 H                  0.76852842    2.02151779    2.10180077
 H                  2.36603921    2.00253395    1.16458718

 1 2 1.0 3 1.0 4 2.0
 2
 3
 4 5 1.0 6 1.0
 5
 6 7 1.0 8 2.0
 7
 8 9 1.0 10 1.0
 9
 10 11 1.0 12 2.0
 11
 12 13 1.0 14 1.0
 13
 14 15 1.0 16 2.0
 15
 16 17 1.0 18 1.0
 17
 18

