%chk=transcishex.chk
# opt freq b3lyp/6-31g* geom=connectivity

Title Card Required

0 1
 C                 -4.48980598    2.00320718   -2.35799557
 H                 -3.95150998    1.93929974   -3.28052105
 H                 -5.55977069    2.00914692   -2.36433915
 C                 -3.82107644    2.07665151   -1.18157143
 H                 -4.35937245    2.14055894   -0.25904596
 C                 -2.28112723    2.06810272   -1.17244142
 H                 -1.74283123    2.00419529   -2.09496690
 C                 -1.60540644    2.14124342   -0.00000000
 H                 -2.13819884    2.20532724    0.92570272
 C                 -0.06543362    2.13209366   -0.00000000
 H                  0.46735878    2.06800984    0.92570272
 C                  0.61725457    2.20492815   -1.16841731
 H                  0.08998457    2.26918610   -2.09726459
 H                  1.68721432    2.19815353   -1.16207373

 1 2 1.0 3 1.0 4 2.0
 2
 3
 4 5 1.0 6 1.0
 5
 6 7 1.0 8 2.0
 7
 8 9 1.0 10 1.0
 9
 10 11 1.0 12 2.0
 11
 12 13 1.0 14 1.0
 13
 14

